
     RDKit          3D

 65 67  0  0  0  0  0  0  0  0999 V2000
   17.8610   -3.1320    5.6020 H   0  0  0  0  0  0  0  0  0  0  0  0
   17.5350   -3.4070    6.4730 N   0  0  0  0  0  0  0  0  0  0  0  0
   18.3700   -3.5760    7.4580 C   0  0  0  0  0  0  0  0  0  0  0  0
   19.7160   -3.3630    7.2640 N   0  0  0  0  0  0  0  0  0  0  0  0
   17.8710   -3.9970    8.7880 C   0  0  0  0  0  0  0  0  0  0  0  0
   18.6650   -4.7910    9.6130 C   0  0  0  0  0  0  0  0  0  0  0  0
   18.1980   -5.1760   10.8540 C   0  0  0  0  0  0  0  0  0  0  0  0
   16.9390   -4.7840   11.2730 C   0  0  0  0  0  0  0  0  0  0  0  0
   16.4300   -5.2120   12.6260 C   0  0  0  0  0  0  0  0  0  0  0  0
   15.9960   -6.6100   12.5640 N   0  0  0  0  0  0  0  0  0  0  0  0
   15.8030   -7.3060   13.7020 C   0  0  0  0  0  0  0  0  0  0  0  0
   15.9880   -6.7750   14.7770 O   0  0  0  0  0  0  0  0  0  0  0  0
   15.3610   -8.7450   13.6380 C   0  0  2  0  0  0  0  0  0  0  0  0
   14.4130   -9.0710   14.8190 C   0  0  0  0  0  0  0  0  0  0  0  0
   14.5930  -10.6070   14.9480 C   0  0  0  0  0  0  0  0  0  0  0  0
   16.0840  -10.8100   14.6080 C   0  0  0  0  0  0  0  0  0  0  0  0
   16.5150   -9.6450   13.8220 N   0  0  0  0  0  0  0  0  0  0  0  0
   17.7600   -9.4340   13.3480 C   0  0  0  0  0  0  0  0  0  0  0  0
   18.6370   -9.0540   14.0940 O   0  0  0  0  0  0  0  0  0  0  0  0
   18.0600   -9.6700   11.8900 C   0  0  0  0  0  0  0  0  0  0  0  0
   19.2730  -10.4890   11.7670 N   0  0  0  0  0  0  0  0  0  0  0  0
   18.9700  -11.7900   11.1560 C   0  0  0  0  0  0  0  0  0  0  0  0
   19.9520  -12.0580   10.0140 C   0  0  0  0  0  0  0  0  0  0  0  0
   19.9970  -13.5590    9.7210 C   0  0  0  0  0  0  0  0  0  0  0  0
   19.9440  -14.3360   11.0370 C   0  0  0  0  0  0  0  0  0  0  0  0
   18.5100  -14.8550   11.2380 C   0  0  0  0  0  0  0  0  0  0  0  0
   17.7000  -13.8250   12.0290 C   0  0  0  0  0  0  0  0  0  0  0  0
   16.8070  -13.0360   11.0700 C   0  0  0  0  0  0  0  0  0  0  0  0
   17.5410  -11.7760   10.6090 C   0  0  0  0  0  0  0  0  0  0  0  0
   16.1460   -3.9960   10.4580 C   0  0  0  0  0  0  0  0  0  0  0  0
   16.6050   -3.6010    9.2180 C   0  0  0  0  0  0  0  0  0  0  0  0
   20.3390   -3.4900    7.9970 H   0  0  0  0  0  0  0  0  0  0  0  0
   20.0430   -3.0880    6.3920 H   0  0  0  0  0  0  0  0  0  0  0  0
   19.6622   -5.1106    9.2762 H   0  0  0  0  0  0  0  0  0  0  0  0
   18.8275   -5.7950   11.5102 H   0  0  0  0  0  0  0  0  0  0  0  0
   17.2343   -5.1103   13.3695 H   0  0  0  0  0  0  0  0  0  0  0  0
   15.5803   -4.5765   12.9162 H   0  0  0  0  0  0  0  0  0  0  0  0
   15.8490   -7.0340   11.7040 H   0  0  0  0  0  0  0  0  0  0  0  0
   14.8740   -8.8862   12.6618 H   0  0  0  0  0  0  0  0  0  0  0  0
   14.7231   -8.5518   15.7379 H   0  0  0  0  0  0  0  0  0  0  0  0
   13.3720   -8.7542   14.6581 H   0  0  0  0  0  0  0  0  0  0  0  0
   14.3705  -10.9469   15.9702 H   0  0  0  0  0  0  0  0  0  0  0  0
   13.9172  -11.1795   14.2956 H   0  0  0  0  0  0  0  0  0  0  0  0
   16.6751  -10.8796   15.5331 H   0  0  0  0  0  0  0  0  0  0  0  0
   16.2309  -11.7399   14.0391 H   0  0  0  0  0  0  0  0  0  0  0  0
   17.2141  -10.1946   11.4217 H   0  0  0  0  0  0  0  0  0  0  0  0
   18.2163   -8.7046   11.3865 H   0  0  0  0  0  0  0  0  0  0  0  0
   19.9870  -10.0010   11.2450 H   0  0  0  0  0  0  0  0  0  0  0  0
   19.0643  -12.5822   11.9134 H   0  0  0  0  0  0  0  0  0  0  0  0
   19.6232  -11.5184    9.1136 H   0  0  0  0  0  0  0  0  0  0  0  0
   20.9548  -11.7110   10.3040 H   0  0  0  0  0  0  0  0  0  0  0  0
   19.1355  -13.8368    9.0960 H   0  0  0  0  0  0  0  0  0  0  0  0
   20.9287  -13.8014    9.1889 H   0  0  0  0  0  0  0  0  0  0  0  0
   20.6435  -15.1840   10.9960 H   0  0  0  0  0  0  0  0  0  0  0  0
   20.2294  -13.6814   11.8737 H   0  0  0  0  0  0  0  0  0  0  0  0
   18.0383  -15.0177   10.2577 H   0  0  0  0  0  0  0  0  0  0  0  0
   18.5383  -15.8039   11.7937 H   0  0  0  0  0  0  0  0  0  0  0  0
   17.0744  -14.3419   12.7716 H   0  0  0  0  0  0  0  0  0  0  0  0
   18.3852  -13.1357   12.5442 H   0  0  0  0  0  0  0  0  0  0  0  0
   16.5657  -13.6599   10.1967 H   0  0  0  0  0  0  0  0  0  0  0  0
   15.8779  -12.7509   11.5853 H   0  0  0  0  0  0  0  0  0  0  0  0
   17.5693  -11.7495    9.5097 H   0  0  0  0  0  0  0  0  0  0  0  0
   17.0135  -10.8863   10.9834 H   0  0  0  0  0  0  0  0  0  0  0  0
   15.1479   -3.6838   10.7990 H   0  0  0  0  0  0  0  0  0  0  0  0
   15.9736   -2.9751    8.5702 H   0  0  0  0  0  0  0  0  0  0  0  0
  1  2  1  0
  2  3  2  0
  3  4  1  0
  3  5  1  0
  5  6  2  0
  6  7  1  0
  7  8  2  0
  8  9  1  0
  9 10  1  0
 10 11  1  0
 11 12  2  0
 11 13  1  0
 13 14  1  0
 14 15  1  0
 15 16  1  0
 16 17  1  0
 17 18  1  0
 18 19  2  0
 18 20  1  0
 20 21  1  0
 21 22  1  0
 22 23  1  0
 23 24  1  0
 24 25  1  0
 25 26  1  0
 26 27  1  0
 27 28  1  0
 28 29  1  0
  8 30  1  0
 30 31  2  0
 31  5  1  0
 17 13  1  0
 29 22  1  0
  4 32  1  0
  4 33  1  0
  6 34  1  0
  7 35  1  0
  9 36  1  0
  9 37  1  0
 10 38  1  0
 13 39  1  6
 14 40  1  0
 14 41  1  0
 15 42  1  0
 15 43  1  0
 16 44  1  0
 16 45  1  0
 20 46  1  0
 20 47  1  0
 21 48  1  0
 22 49  1  0
 23 50  1  0
 23 51  1  0
 24 52  1  0
 24 53  1  0
 25 54  1  0
 25 55  1  0
 26 56  1  0
 26 57  1  0
 27 58  1  0
 27 59  1  0
 28 60  1  0
 28 61  1  0
 29 62  1  0
 29 63  1  0
 30 64  1  0
 31 65  1  0
M  END
$$$$

     RDKit          3D

 65 67  0  0  0  0  0  0  0  0999 V2000
   16.2460  -15.8540    7.5090 H   0  0  0  0  0  0  0  0  0  0  0  0
   16.5530  -15.0330    7.9250 N   0  0  0  0  0  0  0  0  0  0  0  0
   17.2490  -15.0800    9.0240 C   0  0  0  0  0  0  0  0  0  0  0  0
   17.5510  -16.2950    9.5970 N   0  0  0  0  0  0  0  0  0  0  0  0
   17.7170  -13.8250    9.6570 C   0  0  0  0  0  0  0  0  0  0  0  0
   19.0780  -13.5210    9.6840 C   0  0  0  0  0  0  0  0  0  0  0  0
   19.5080  -12.3480   10.2700 C   0  0  0  0  0  0  0  0  0  0  0  0
   18.5930  -11.4810   10.8410 C   0  0  0  0  0  0  0  0  0  0  0  0
   19.0700  -10.2050   11.4870 C   0  0  0  0  0  0  0  0  0  0  0  0
   18.0190   -9.1890   11.3950 N   0  0  0  0  0  0  0  0  0  0  0  0
   18.2740   -7.9190   11.7670 C   0  0  0  0  0  0  0  0  0  0  0  0
   19.3750   -7.6180   12.1780 O   0  0  0  0  0  0  0  0  0  0  0  0
   17.1920   -6.8760   11.6780 C   0  0  2  0  0  0  0  0  0  0  0  0
   17.7510   -5.5690   11.0630 C   0  0  0  0  0  0  0  0  0  0  0  0
   16.7640   -4.5120   11.6250 C   0  0  0  0  0  0  0  0  0  0  0  0
   16.4460   -5.0510   13.0360 C   0  0  0  0  0  0  0  0  0  0  0  0
   16.7360   -6.4920   13.0280 N   0  0  0  0  0  0  0  0  0  0  0  0
   16.6060   -7.3260   14.0790 C   0  0  0  0  0  0  0  0  0  0  0  0
   17.4180   -7.2970   14.9790 O   0  0  0  0  0  0  0  0  0  0  0  0
   15.4510   -8.2920   14.1360 C   0  0  0  0  0  0  0  0  0  0  0  0
   15.8190   -9.5360   13.4470 N   0  0  0  0  0  0  0  0  0  0  0  0
   15.8540  -10.6660   14.3840 C   0  0  0  0  0  0  0  0  0  0  0  0
   15.0650  -10.3080   15.6450 C   0  0  0  0  0  0  0  0  0  0  0  0
   15.6890  -11.0070   16.8540 C   0  0  0  0  0  0  0  0  0  0  0  0
   15.2430  -12.4700   16.8830 C   0  0  0  0  0  0  0  0  0  0  0  0
   16.4050  -13.3840   16.3610 C   0  0  0  0  0  0  0  0  0  0  0  0
   16.4660  -13.3260   14.8340 C   0  0  0  0  0  0  0  0  0  0  0  0
   17.6260  -12.4260   14.4040 C   0  0  0  0  0  0  0  0  0  0  0  0
   17.3040  -10.9740   14.7600 C   0  0  0  0  0  0  0  0  0  0  0  0
   17.2430  -11.7780   10.8170 C   0  0  0  0  0  0  0  0  0  0  0  0
   16.8000  -12.9450   10.2290 C   0  0  0  0  0  0  0  0  0  0  0  0
   18.0700  -16.3300   10.4160 H   0  0  0  0  0  0  0  0  0  0  0  0
   17.2440  -17.1170    9.1810 H   0  0  0  0  0  0  0  0  0  0  0  0
   19.8068  -14.2146    9.2393 H   0  0  0  0  0  0  0  0  0  0  0  0
   20.5800  -12.1017   10.2833 H   0  0  0  0  0  0  0  0  0  0  0  0
   19.3048  -10.3950   12.5447 H   0  0  0  0  0  0  0  0  0  0  0  0
   19.9724   -9.8471   10.9698 H   0  0  0  0  0  0  0  0  0  0  0  0
   17.1380   -9.4310   11.0660 H   0  0  0  0  0  0  0  0  0  0  0  0
   16.3822   -7.3082   11.0718 H   0  0  0  0  0  0  0  0  0  0  0  0
   18.7804   -5.3756   11.3991 H   0  0  0  0  0  0  0  0  0  0  0  0
   17.8142   -5.5827    9.9649 H   0  0  0  0  0  0  0  0  0  0  0  0
   17.2352   -3.5194   11.6777 H   0  0  0  0  0  0  0  0  0  0  0  0
   15.8689   -4.3784   10.9997 H   0  0  0  0  0  0  0  0  0  0  0  0
   17.0746   -4.5445   13.7832 H   0  0  0  0  0  0  0  0  0  0  0  0
   15.3931   -4.8667   13.2956 H   0  0  0  0  0  0  0  0  0  0  0  0
   15.2087   -8.5123   15.1861 H   0  0  0  0  0  0  0  0  0  0  0  0
   14.5747   -7.8454   13.6435 H   0  0  0  0  0  0  0  0  0  0  0  0
   15.1920   -9.7220   12.6780 H   0  0  0  0  0  0  0  0  0  0  0  0
   15.4038  -11.5497   13.9082 H   0  0  0  0  0  0  0  0  0  0  0  0
   15.0918   -9.2189   15.7972 H   0  0  0  0  0  0  0  0  0  0  0  0
   14.0217  -10.6371   15.5299 H   0  0  0  0  0  0  0  0  0  0  0  0
   16.7854  -10.9593   16.7797 H   0  0  0  0  0  0  0  0  0  0  0  0
   15.3620  -10.5055   17.7768 H   0  0  0  0  0  0  0  0  0  0  0  0
   14.9883  -12.7548   17.9145 H   0  0  0  0  0  0  0  0  0  0  0  0
   14.3609  -12.5961   16.2380 H   0  0  0  0  0  0  0  0  0  0  0  0
   17.3606  -13.0331   16.7779 H   0  0  0  0  0  0  0  0  0  0  0  0
   16.2202  -14.4212   16.6772 H   0  0  0  0  0  0  0  0  0  0  0  0
   16.6203  -14.3392   14.4344 H   0  0  0  0  0  0  0  0  0  0  0  0
   15.5215  -12.9183   14.4444 H   0  0  0  0  0  0  0  0  0  0  0  0
   18.5436  -12.7364   14.9252 H   0  0  0  0  0  0  0  0  0  0  0  0
   17.7741  -12.5129   13.3175 H   0  0  0  0  0  0  0  0  0  0  0  0
   17.4427  -10.8221   15.8406 H   0  0  0  0  0  0  0  0  0  0  0  0
   17.9768  -10.3030   14.2058 H   0  0  0  0  0  0  0  0  0  0  0  0
   16.5201  -11.0822   11.2678 H   0  0  0  0  0  0  0  0  0  0  0  0
   15.7256  -13.1803   10.2117 H   0  0  0  0  0  0  0  0  0  0  0  0
  1  2  1  0
  2  3  2  0
  3  4  1  0
  3  5  1  0
  5  6  2  0
  6  7  1  0
  7  8  2  0
  8  9  1  0
  9 10  1  0
 10 11  1  0
 11 12  2  0
 11 13  1  0
 13 14  1  0
 14 15  1  0
 15 16  1  0
 16 17  1  0
 17 18  1  0
 18 19  2  0
 18 20  1  0
 20 21  1  0
 21 22  1  0
 22 23  1  0
 23 24  1  0
 24 25  1  0
 25 26  1  0
 26 27  1  0
 27 28  1  0
 28 29  1  0
  8 30  1  0
 30 31  2  0
 31  5  1  0
 17 13  1  0
 29 22  1  0
  4 32  1  0
  4 33  1  0
  6 34  1  0
  7 35  1  0
  9 36  1  0
  9 37  1  0
 10 38  1  0
 13 39  1  6
 14 40  1  0
 14 41  1  0
 15 42  1  0
 15 43  1  0
 16 44  1  0
 16 45  1  0
 20 46  1  0
 20 47  1  0
 21 48  1  0
 22 49  1  0
 23 50  1  0
 23 51  1  0
 24 52  1  0
 24 53  1  0
 25 54  1  0
 25 55  1  0
 26 56  1  0
 26 57  1  0
 27 58  1  0
 27 59  1  0
 28 60  1  0
 28 61  1  0
 29 62  1  0
 29 63  1  0
 30 64  1  0
 31 65  1  0
M  END
$$$$

     RDKit          3D

 65 67  0  0  0  0  0  0  0  0999 V2000
   20.4160   -3.5780    6.3360 H   0  0  0  0  0  0  0  0  0  0  0  0
   19.9740   -3.7390    7.1850 N   0  0  0  0  0  0  0  0  0  0  0  0
   18.6760   -3.6930    7.2620 C   0  0  0  0  0  0  0  0  0  0  0  0
   17.9280   -3.4170    6.1390 N   0  0  0  0  0  0  0  0  0  0  0  0
   18.0020   -3.9380    8.5590 C   0  0  0  0  0  0  0  0  0  0  0  0
   16.6440   -3.6570    8.7050 C   0  0  0  0  0  0  0  0  0  0  0  0
   16.0200   -3.8940    9.9130 C   0  0  0  0  0  0  0  0  0  0  0  0
   16.7420   -4.3970   10.9810 C   0  0  0  0  0  0  0  0  0  0  0  0
   16.0570   -4.6460   12.3000 C   0  0  0  0  0  0  0  0  0  0  0  0
   16.9110   -5.4830   13.1440 N   0  0  0  0  0  0  0  0  0  0  0  0
   16.4890   -6.7030   13.5300 C   0  0  0  0  0  0  0  0  0  0  0  0
   15.4000   -7.1080   13.1780 O   0  0  0  0  0  0  0  0  0  0  0  0
   17.3650   -7.5640   14.4030 C   0  0  2  0  0  0  0  0  0  0  0  0
   18.2770   -6.6800   15.2900 C   0  0  0  0  0  0  0  0  0  0  0  0
   19.4540   -7.6470   15.5870 C   0  0  0  0  0  0  0  0  0  0  0  0
   19.5870   -8.4450   14.2730 C   0  0  0  0  0  0  0  0  0  0  0  0
   18.2950   -8.3540   13.5750 N   0  0  0  0  0  0  0  0  0  0  0  0
   18.0090   -8.9040   12.3780 C   0  0  0  0  0  0  0  0  0  0  0  0
   18.4030   -8.3780   11.3600 O   0  0  0  0  0  0  0  0  0  0  0  0
   17.1990  -10.1730   12.3060 C   0  0  0  0  0  0  0  0  0  0  0  0
   18.0040  -11.2970   12.8030 N   0  0  0  0  0  0  0  0  0  0  0  0
   18.2550  -12.2760   11.7370 C   0  0  0  0  0  0  0  0  0  0  0  0
   19.7150  -12.1810   11.2910 C   0  0  0  0  0  0  0  0  0  0  0  0
   19.8140  -12.5000    9.7980 C   0  0  0  0  0  0  0  0  0  0  0  0
   19.7540  -14.0150    9.5960 C   0  0  0  0  0  0  0  0  0  0  0  0
   18.3460  -14.4400    9.0990 C   0  0  0  0  0  0  0  0  0  0  0  0
   17.3750  -14.4670   10.2820 C   0  0  0  0  0  0  0  0  0  0  0  0
   16.4910  -13.2200   10.2420 C   0  0  0  0  0  0  0  0  0  0  0  0
   17.3370  -11.9830   10.5490 C   0  0  0  0  0  0  0  0  0  0  0  0
   18.0890   -4.6770   10.8410 C   0  0  0  0  0  0  0  0  0  0  0  0
   18.7230   -4.4500    9.6370 C   0  0  0  0  0  0  0  0  0  0  0  0
   16.9600   -3.3830    6.1970 H   0  0  0  0  0  0  0  0  0  0  0  0
   18.3700   -3.2570    5.2900 H   0  0  0  0  0  0  0  0  0  0  0  0
   16.0716   -3.2475    7.8596 H   0  0  0  0  0  0  0  0  0  0  0  0
   14.9465   -3.6826   10.0271 H   0  0  0  0  0  0  0  0  0  0  0  0
   15.8719   -3.6859   12.8039 H   0  0  0  0  0  0  0  0  0  0  0  0
   15.0999   -5.1590   12.1245 H   0  0  0  0  0  0  0  0  0  0  0  0
   17.7820   -5.1600   13.4260 H   0  0  0  0  0  0  0  0  0  0  0  0
   16.6951   -8.2006   14.9997 H   0  0  0  0  0  0  0  0  0  0  0  0
   18.6189   -5.7857   14.7484 H   0  0  0  0  0  0  0  0  0  0  0  0
   17.7817   -6.2876   16.1904 H   0  0  0  0  0  0  0  0  0  0  0  0
   20.3771   -7.0906   15.8069 H   0  0  0  0  0  0  0  0  0  0  0  0
   19.2799   -8.2849   16.4661 H   0  0  0  0  0  0  0  0  0  0  0  0
   20.3835   -8.0133   13.6491 H   0  0  0  0  0  0  0  0  0  0  0  0
   19.8465   -9.4941   14.4783 H   0  0  0  0  0  0  0  0  0  0  0  0
   16.2958  -10.0670   12.9249 H   0  0  0  0  0  0  0  0  0  0  0  0
   16.9083  -10.3636   11.2624 H   0  0  0  0  0  0  0  0  0  0  0  0
   18.8710  -10.9700   13.2050 H   0  0  0  0  0  0  0  0  0  0  0  0
   18.0529  -13.2893   12.1142 H   0  0  0  0  0  0  0  0  0  0  0  0
   20.0888  -11.1627   11.4739 H   0  0  0  0  0  0  0  0  0  0  0  0
   20.3201  -12.9016   11.8608 H   0  0  0  0  0  0  0  0  0  0  0  0
   18.9768  -12.0255    9.2652 H   0  0  0  0  0  0  0  0  0  0  0  0
   20.7654  -12.1145    9.4027 H   0  0  0  0  0  0  0  0  0  0  0  0
   20.5062  -14.3111    8.8500 H   0  0  0  0  0  0  0  0  0  0  0  0
   19.9579  -14.5111   10.5564 H   0  0  0  0  0  0  0  0  0  0  0  0
   17.9892  -13.7198    8.3480 H   0  0  0  0  0  0  0  0  0  0  0  0
   18.4029  -15.4416    8.6479 H   0  0  0  0  0  0  0  0  0  0  0  0
   16.7444  -15.3661   10.2187 H   0  0  0  0  0  0  0  0  0  0  0  0
   17.9434  -14.4844   11.2236 H   0  0  0  0  0  0  0  0  0  0  0  0
   16.0445  -13.1194    9.2418 H   0  0  0  0  0  0  0  0  0  0  0  0
   15.6928  -13.3130   10.9931 H   0  0  0  0  0  0  0  0  0  0  0  0
   17.9459  -11.7275    9.6692 H   0  0  0  0  0  0  0  0  0  0  0  0
   16.6765  -11.1385   10.7952 H   0  0  0  0  0  0  0  0  0  0  0  0
   18.6564   -5.0818   11.6920 H   0  0  0  0  0  0  0  0  0  0  0  0
   19.7947   -4.6724    9.5277 H   0  0  0  0  0  0  0  0  0  0  0  0
  1  2  1  0
  2  3  2  0
  3  4  1  0
  3  5  1  0
  5  6  2  0
  6  7  1  0
  7  8  2  0
  8  9  1  0
  9 10  1  0
 10 11  1  0
 11 12  2  0
 11 13  1  0
 13 14  1  0
 14 15  1  0
 15 16  1  0
 16 17  1  0
 17 18  1  0
 18 19  2  0
 18 20  1  0
 20 21  1  0
 21 22  1  0
 22 23  1  0
 23 24  1  0
 24 25  1  0
 25 26  1  0
 26 27  1  0
 27 28  1  0
 28 29  1  0
  8 30  1  0
 30 31  2  0
 31  5  1  0
 17 13  1  0
 29 22  1  0
  4 32  1  0
  4 33  1  0
  6 34  1  0
  7 35  1  0
  9 36  1  0
  9 37  1  0
 10 38  1  0
 13 39  1  1
 14 40  1  0
 14 41  1  0
 15 42  1  0
 15 43  1  0
 16 44  1  0
 16 45  1  0
 20 46  1  0
 20 47  1  0
 21 48  1  0
 22 49  1  0
 23 50  1  0
 23 51  1  0
 24 52  1  0
 24 53  1  0
 25 54  1  0
 25 55  1  0
 26 56  1  0
 26 57  1  0
 27 58  1  0
 27 59  1  0
 28 60  1  0
 28 61  1  0
 29 62  1  0
 29 63  1  0
 30 64  1  0
 31 65  1  0
M  END
$$$$

     RDKit          3D

 65 67  0  0  0  0  0  0  0  0999 V2000
   17.2580  -17.2030    8.9260 H   0  0  0  0  0  0  0  0  0  0  0  0
   17.5810  -16.3770    9.3210 N   0  0  0  0  0  0  0  0  0  0  0  0
   17.1190  -15.2330    8.9070 C   0  0  0  0  0  0  0  0  0  0  0  0
   16.1710  -15.1930    7.9090 N   0  0  0  0  0  0  0  0  0  0  0  0
   17.6130  -13.9730    9.5110 C   0  0  0  0  0  0  0  0  0  0  0  0
   18.9810  -13.7080    9.5540 C   0  0  0  0  0  0  0  0  0  0  0  0
   19.4360  -12.5300   10.1120 C   0  0  0  0  0  0  0  0  0  0  0  0
   18.5370  -11.6200   10.6380 C   0  0  0  0  0  0  0  0  0  0  0  0
   19.0390  -10.3380   11.2530 C   0  0  0  0  0  0  0  0  0  0  0  0
   17.9210   -9.4090   11.4270 N   0  0  0  0  0  0  0  0  0  0  0  0
   18.1480   -8.1590   11.8770 C   0  0  0  0  0  0  0  0  0  0  0  0
   19.2780   -7.8030   12.1370 O   0  0  0  0  0  0  0  0  0  0  0  0
   16.9970   -7.2040   12.0610 C   0  0  2  0  0  0  0  0  0  0  0  0
   17.3520   -5.8130   11.4800 C   0  0  0  0  0  0  0  0  0  0  0  0
   16.4050   -4.8860   12.2890 C   0  0  0  0  0  0  0  0  0  0  0  0
   16.3730   -5.5550   13.6790 C   0  0  0  0  0  0  0  0  0  0  0  0
   16.7550   -6.9630   13.4960 N   0  0  0  0  0  0  0  0  0  0  0  0
   16.8650   -7.8810   14.4760 C   0  0  0  0  0  0  0  0  0  0  0  0
   17.7370   -7.7730   15.3120 O   0  0  0  0  0  0  0  0  0  0  0  0
   15.9050   -9.0410   14.5340 C   0  0  0  0  0  0  0  0  0  0  0  0
   15.9370   -9.6370   15.8760 N   0  0  0  0  0  0  0  0  0  0  0  0
   16.2770  -11.0640   15.8100 C   0  0  0  0  0  0  0  0  0  0  0  0
   16.4690  -11.4750   14.3490 C   0  0  0  0  0  0  0  0  0  0  0  0
   16.4090  -13.0000   14.2360 C   0  0  0  0  0  0  0  0  0  0  0  0
   17.7300  -13.5990   14.7210 C   0  0  0  0  0  0  0  0  0  0  0  0
   17.4990  -14.2750   16.0990 C   0  0  0  0  0  0  0  0  0  0  0  0
   16.0150  -14.2290   16.4660 C   0  0  0  0  0  0  0  0  0  0  0  0
   15.7380  -12.9850   17.3130 C   0  0  0  0  0  0  0  0  0  0  0  0
   15.1450  -11.8870   16.4280 C   0  0  0  0  0  0  0  0  0  0  0  0
   17.1780  -11.8780   10.5980 C   0  0  0  0  0  0  0  0  0  0  0  0
   16.7120  -13.0490   10.0380 C   0  0  0  0  0  0  0  0  0  0  0  0
   15.8270  -14.3400    7.6000 H   0  0  0  0  0  0  0  0  0  0  0  0
   15.8480  -16.0180    7.5140 H   0  0  0  0  0  0  0  0  0  0  0  0
   19.6965  -14.4361    9.1441 H   0  0  0  0  0  0  0  0  0  0  0  0
   20.5145  -12.3150   10.1383 H   0  0  0  0  0  0  0  0  0  0  0  0
   19.4920  -10.5538   12.2319 H   0  0  0  0  0  0  0  0  0  0  0  0
   19.7924   -9.8849   10.5919 H   0  0  0  0  0  0  0  0  0  0  0  0
   17.0170   -9.6930   11.2200 H   0  0  0  0  0  0  0  0  0  0  0  0
   16.1261   -7.6534   11.5614 H   0  0  0  0  0  0  0  0  0  0  0  0
   18.4080   -5.5614   11.6575 H   0  0  0  0  0  0  0  0  0  0  0  0
   17.2274   -5.7383   10.3896 H   0  0  0  0  0  0  0  0  0  0  0  0
   16.8085   -3.8645   12.3506 H   0  0  0  0  0  0  0  0  0  0  0  0
   15.4088   -4.7797   11.8349 H   0  0  0  0  0  0  0  0  0  0  0  0
   17.0850   -5.0564   14.3531 H   0  0  0  0  0  0  0  0  0  0  0  0
   15.3703   -5.4785   14.1248 H   0  0  0  0  0  0  0  0  0  0  0  0
   14.8872   -8.6859   14.3148 H   0  0  0  0  0  0  0  0  0  0  0  0
   16.1980   -9.7967   13.7903 H   0  0  0  0  0  0  0  0  0  0  0  0
   16.5780   -9.1390   16.4770 H   0  0  0  0  0  0  0  0  0  0  0  0
   17.2080  -11.2458   16.3670 H   0  0  0  0  0  0  0  0  0  0  0  0
   15.6719  -11.0302   13.7352 H   0  0  0  0  0  0  0  0  0  0  0  0
   17.4473  -11.1192   13.9935 H   0  0  0  0  0  0  0  0  0  0  0  0
   15.5840  -13.3815   14.8555 H   0  0  0  0  0  0  0  0  0  0  0  0
   16.2408  -13.2838   13.1866 H   0  0  0  0  0  0  0  0  0  0  0  0
   18.0839  -14.3477   13.9970 H   0  0  0  0  0  0  0  0  0  0  0  0
   18.4862  -12.8059   14.8168 H   0  0  0  0  0  0  0  0  0  0  0  0
   17.8291  -15.3232   16.0497 H   0  0  0  0  0  0  0  0  0  0  0  0
   18.0757  -13.7360   16.8651 H   0  0  0  0  0  0  0  0  0  0  0  0
   15.4111  -14.1893   15.5475 H   0  0  0  0  0  0  0  0  0  0  0  0
   15.7508  -15.1297   17.0395 H   0  0  0  0  0  0  0  0  0  0  0  0
   15.0252  -13.2368   18.1121 H   0  0  0  0  0  0  0  0  0  0  0  0
   16.6781  -12.6285   17.7591 H   0  0  0  0  0  0  0  0  0  0  0  0
   14.5453  -12.3450   15.6276 H   0  0  0  0  0  0  0  0  0  0  0  0
   14.5045  -11.2314   17.0363 H   0  0  0  0  0  0  0  0  0  0  0  0
   16.4681  -11.1477   11.0136 H   0  0  0  0  0  0  0  0  0  0  0  0
   15.6316  -13.2535   10.0073 H   0  0  0  0  0  0  0  0  0  0  0  0
  1  2  1  0
  2  3  2  0
  3  4  1  0
  3  5  1  0
  5  6  2  0
  6  7  1  0
  7  8  2  0
  8  9  1  0
  9 10  1  0
 10 11  1  0
 11 12  2  0
 11 13  1  0
 13 14  1  0
 14 15  1  0
 15 16  1  0
 16 17  1  0
 17 18  1  0
 18 19  2  0
 18 20  1  0
 20 21  1  0
 21 22  1  0
 22 23  1  0
 23 24  1  0
 24 25  1  0
 25 26  1  0
 26 27  1  0
 27 28  1  0
 28 29  1  0
  8 30  1  0
 30 31  2  0
 31  5  1  0
 17 13  1  0
 29 22  1  0
  4 32  1  0
  4 33  1  0
  6 34  1  0
  7 35  1  0
  9 36  1  0
  9 37  1  0
 10 38  1  0
 13 39  1  6
 14 40  1  0
 14 41  1  0
 15 42  1  0
 15 43  1  0
 16 44  1  0
 16 45  1  0
 20 46  1  0
 20 47  1  0
 21 48  1  0
 22 49  1  0
 23 50  1  0
 23 51  1  0
 24 52  1  0
 24 53  1  0
 25 54  1  0
 25 55  1  0
 26 56  1  0
 26 57  1  0
 27 58  1  0
 27 59  1  0
 28 60  1  0
 28 61  1  0
 29 62  1  0
 29 63  1  0
 30 64  1  0
 31 65  1  0
M  END
$$$$

     RDKit          3D

 65 67  0  0  0  0  0  0  0  0999 V2000
   16.5210   -3.5170   10.7420 H   0  0  0  0  0  0  0  0  0  0  0  0
   16.6490   -4.4760   10.8190 N   0  0  0  0  0  0  0  0  0  0  0  0
   16.8260   -5.0180   11.9890 C   0  0  0  0  0  0  0  0  0  0  0  0
   16.8310   -4.2310   13.1190 N   0  0  0  0  0  0  0  0  0  0  0  0
   17.0210   -6.4820   12.1050 C   0  0  0  0  0  0  0  0  0  0  0  0
   16.0330   -7.2750   12.6870 C   0  0  0  0  0  0  0  0  0  0  0  0
   16.2170   -8.6390   12.7870 C   0  0  0  0  0  0  0  0  0  0  0  0
   17.3840   -9.2180   12.3220 C   0  0  0  0  0  0  0  0  0  0  0  0
   17.5830  -10.7080   12.4410 C   0  0  0  0  0  0  0  0  0  0  0  0
   17.6690  -11.2970   11.1030 N   0  0  0  0  0  0  0  0  0  0  0  0
   17.2360  -12.5550   10.8920 C   0  0  0  0  0  0  0  0  0  0  0  0
   16.7740  -13.2000   11.8100 O   0  0  0  0  0  0  0  0  0  0  0  0
   17.3300  -13.1640    9.5170 C   0  0  2  0  0  0  0  0  0  0  0  0
   16.1470  -14.1340    9.2740 C   0  0  0  0  0  0  0  0  0  0  0  0
   16.7320  -15.0730    8.1860 C   0  0  0  0  0  0  0  0  0  0  0  0
   18.2180  -15.1810    8.5850 C   0  0  0  0  0  0  0  0  0  0  0  0
   18.5360  -14.0060    9.4090 N   0  0  0  0  0  0  0  0  0  0  0  0
   19.7320  -13.7400    9.9710 C   0  0  0  0  0  0  0  0  0  0  0  0
   20.0790  -14.3370   10.9680 O   0  0  0  0  0  0  0  0  0  0  0  0
   20.6380  -12.7030    9.3610 C   0  0  0  0  0  0  0  0  0  0  0  0
   21.9930  -12.8530    9.9070 N   0  0  0  0  0  0  0  0  0  0  0  0
   22.7820  -13.7980    9.1050 C   0  0  0  0  0  0  0  0  0  0  0  0
   23.7380  -14.5670   10.0190 C   0  0  0  0  0  0  0  0  0  0  0  0
   25.0150  -14.9090    9.2490 C   0  0  0  0  0  0  0  0  0  0  0  0
   24.7370  -16.0680    8.2900 C   0  0  0  0  0  0  0  0  0  0  0  0
   24.6160  -15.5460    6.8510 C   0  0  0  0  0  0  0  0  0  0  0  0
   23.1920  -15.0350    6.6200 C   0  0  0  0  0  0  0  0  0  0  0  0
   23.1890  -13.5050    6.6580 C   0  0  0  0  0  0  0  0  0  0  0  0
   23.5870  -13.0290    8.0560 C   0  0  0  0  0  0  0  0  0  0  0  0
   18.3680   -8.4360   11.7440 C   0  0  0  0  0  0  0  0  0  0  0  0
   18.1920   -7.0720   11.6330 C   0  0  0  0  0  0  0  0  0  0  0  0
   16.9630   -4.6350   13.9920 H   0  0  0  0  0  0  0  0  0  0  0  0
   16.7030   -3.2720   13.0430 H   0  0  0  0  0  0  0  0  0  0  0  0
   15.1087   -6.8143   13.0657 H   0  0  0  0  0  0  0  0  0  0  0  0
   15.4342   -9.2670   13.2373 H   0  0  0  0  0  0  0  0  0  0  0  0
   18.5135  -10.9109   12.9915 H   0  0  0  0  0  0  0  0  0  0  0  0
   16.7332  -11.1495   12.9822 H   0  0  0  0  0  0  0  0  0  0  0  0
   18.0390  -10.7810   10.3690 H   0  0  0  0  0  0  0  0  0  0  0  0
   17.3388  -12.3303    8.7995 H   0  0  0  0  0  0  0  0  0  0  0  0
   15.8894  -14.6898   10.1877 H   0  0  0  0  0  0  0  0  0  0  0  0
   15.2123  -13.6348    8.9788 H   0  0  0  0  0  0  0  0  0  0  0  0
   16.2435  -16.0583    8.2096 H   0  0  0  0  0  0  0  0  0  0  0  0
   16.5836  -14.6971    7.1629 H   0  0  0  0  0  0  0  0  0  0  0  0
   18.3868  -16.1022    9.1620 H   0  0  0  0  0  0  0  0  0  0  0  0
   18.8594  -15.2155    7.6920 H   0  0  0  0  0  0  0  0  0  0  0  0
   20.6658  -12.8371    8.2696 H   0  0  0  0  0  0  0  0  0  0  0  0
   20.2568  -11.6988    9.5980 H   0  0  0  0  0  0  0  0  0  0  0  0
   22.4570  -11.9590    9.9740 H   0  0  0  0  0  0  0  0  0  0  0  0
   22.1065  -14.5055    8.6018 H   0  0  0  0  0  0  0  0  0  0  0  0
   23.9908  -13.9459   10.8910 H   0  0  0  0  0  0  0  0  0  0  0  0
   23.2544  -15.4951   10.3578 H   0  0  0  0  0  0  0  0  0  0  0  0
   25.3442  -14.0297    8.6759 H   0  0  0  0  0  0  0  0  0  0  0  0
   25.8038  -15.2008    9.9580 H   0  0  0  0  0  0  0  0  0  0  0  0
   25.5630  -16.7923    8.3458 H   0  0  0  0  0  0  0  0  0  0  0  0
   23.7927  -16.5537    8.5770 H   0  0  0  0  0  0  0  0  0  0  0  0
   25.3314  -14.7249    6.6960 H   0  0  0  0  0  0  0  0  0  0  0  0
   24.8369  -16.3584    6.1430 H   0  0  0  0  0  0  0  0  0  0  0  0
   22.8334  -15.3785    5.6384 H   0  0  0  0  0  0  0  0  0  0  0  0
   22.5297  -15.4236    7.4076 H   0  0  0  0  0  0  0  0  0  0  0  0
   23.9079  -13.1185    5.9206 H   0  0  0  0  0  0  0  0  0  0  0  0
   22.1817  -13.1342    6.4173 H   0  0  0  0  0  0  0  0  0  0  0  0
   24.6607  -13.2096    8.2129 H   0  0  0  0  0  0  0  0  0  0  0  0
   23.3785  -11.9531    8.1501 H   0  0  0  0  0  0  0  0  0  0  0  0
   19.2923   -8.9024   11.3723 H   0  0  0  0  0  0  0  0  0  0  0  0
   18.9748   -6.4512   11.1727 H   0  0  0  0  0  0  0  0  0  0  0  0
  1  2  1  0
  2  3  2  0
  3  4  1  0
  3  5  1  0
  5  6  2  0
  6  7  1  0
  7  8  2  0
  8  9  1  0
  9 10  1  0
 10 11  1  0
 11 12  2  0
 11 13  1  0
 13 14  1  0
 14 15  1  0
 15 16  1  0
 16 17  1  0
 17 18  1  0
 18 19  2  0
 18 20  1  0
 20 21  1  0
 21 22  1  0
 22 23  1  0
 23 24  1  0
 24 25  1  0
 25 26  1  0
 26 27  1  0
 27 28  1  0
 28 29  1  0
  8 30  1  0
 30 31  2  0
 31  5  1  0
 17 13  1  0
 29 22  1  0
  4 32  1  0
  4 33  1  0
  6 34  1  0
  7 35  1  0
  9 36  1  0
  9 37  1  0
 10 38  1  0
 13 39  1  6
 14 40  1  0
 14 41  1  0
 15 42  1  0
 15 43  1  0
 16 44  1  0
 16 45  1  0
 20 46  1  0
 20 47  1  0
 21 48  1  0
 22 49  1  0
 23 50  1  0
 23 51  1  0
 24 52  1  0
 24 53  1  0
 25 54  1  0
 25 55  1  0
 26 56  1  0
 26 57  1  0
 27 58  1  0
 27 59  1  0
 28 60  1  0
 28 61  1  0
 29 62  1  0
 29 63  1  0
 30 64  1  0
 31 65  1  0
M  END
$$$$

